3D Atomistic
  MatStudio         3D                             0

  5  4  0  0  0  0  0  0  0  0999 V2000
   -2.9326   -2.4368    1.7001 C   0  0  0  0  0  0  0  0  0  0
   -3.5828   -1.3536    0.8730 O   0  5  0  0  0  0  0  0  0  0
   -1.8252   -2.5023    1.4379 H   0  0  0  0  0  0  0  0  0  0
   -3.4350   -3.4362    1.4799 H   0  0  0  0  0  0  0  0  0  0
   -3.0471   -2.1899    2.8072 H   0  0  0  0  0  0  0  0  0  0
  1  2  1  0  0  0
  1  3  1  0  0  0
  1  4  1  0  0  0
  1  5  1  0  0  0
M  END
